Version 4
SHEET 1 880 680
WIRE -560 -192 -608 -192
WIRE -448 -192 -480 -192
WIRE -608 -96 -608 -112
WIRE 288 -80 224 -80
WIRE 336 -80 288 -80
WIRE 544 -80 336 -80
WIRE 224 -16 224 -80
WIRE 336 -16 336 -80
WIRE 544 64 544 -80
WIRE -560 80 -608 80
WIRE -448 80 -480 80
WIRE 224 80 224 48
WIRE 224 80 64 80
WIRE 336 80 336 48
WIRE 336 80 272 80
WIRE 224 112 224 80
WIRE 336 112 336 80
WIRE 64 128 64 80
WIRE -608 176 -608 160
WIRE 224 224 224 176
WIRE 336 224 336 176
WIRE 336 224 224 224
WIRE 544 224 544 144
WIRE 544 224 336 224
WIRE 544 240 544 224
WIRE 64 272 64 208
WIRE 272 272 272 80
WIRE 272 272 64 272
FLAG 544 240 0
FLAG 272 -16 Gate1
FLAG 384 -16 Gate2
FLAG 288 -80 Kathode
FLAG -384 -192 Gate1
FLAG -608 -96 Kathode
FLAG -384 80 Gate2
FLAG -608 176 Kathode
SYMBOL diode 240 176 R180
WINDOW 0 24 64 Left 2
WINDOW 3 24 0 Left 2
SYMATTR InstName D1
SYMBOL diode 352 176 R180
WINDOW 0 24 64 Left 2
WINDOW 3 24 0 Left 2
SYMATTR InstName D2
SYMBOL Misc\\SCR 240 48 R180
WINDOW 3 48 72 Left 2
SYMATTR Value EC103D2
SYMATTR InstName U1
SYMBOL Misc\\SCR 352 48 R180
WINDOW 3 -121 36 Left 2
SYMATTR Value EC103D1
SYMATTR InstName U2
SYMBOL voltage 64 112 R0
WINDOW 3 -168 107 Left 2
WINDOW 123 0 0 Left 2
WINDOW 39 0 0 Left 2
SYMATTR Value SINE(0 311 50)
SYMATTR InstName V1
SYMBOL res 528 48 R0
SYMATTR InstName R1
SYMATTR Value 100
SYMBOL voltage -608 -208 R0
WINDOW 0 -94 82 Left 2
WINDOW 123 0 0 Left 2
WINDOW 39 0 0 Left 2
SYMATTR InstName V2
SYMATTR Value PULSE(0 5 5.56m 0 0 100u 20m)
SYMBOL Misc\\EuropeanResistor -464 -208 R90
WINDOW 0 5 56 VBottom 2
WINDOW 3 27 56 VTop 2
SYMATTR InstName R2
SYMATTR Value 220
SYMBOL voltage -608 64 R0
WINDOW 0 -94 82 Left 2
WINDOW 123 0 0 Left 2
WINDOW 39 0 0 Left 2
SYMATTR InstName V3
SYMATTR Value PULSE(0 5 15.56m 0 0 100u 20m)
SYMBOL Misc\\EuropeanResistor -464 64 R90
WINDOW 0 5 56 VBottom 2
WINDOW 3 27 56 VTop 2
SYMATTR InstName R3
SYMATTR Value 220
SYMBOL diode -448 -176 R270
WINDOW 0 32 32 VTop 2
WINDOW 3 0 32 VBottom 2
SYMATTR InstName D3
SYMBOL diode -448 96 R270
WINDOW 0 32 32 VTop 2
WINDOW 3 0 32 VBottom 2
SYMATTR InstName D4
TEXT -112 280 Left 2 !.tran 100m uic
TEXT -64 448 Left 2 !.lib Thyristor_SCR_EC103xx_SxSx_A_SPICE_Model_lib.lib
