Version 4
SHEET 1 880 680
WIRE -560 -192 -608 -192
WIRE -448 -192 -480 -192
WIRE -608 -96 -608 -112
WIRE 64 64 -48 64
WIRE 112 64 112 32
WIRE 176 64 128 64
WIRE 208 64 176 64
WIRE 336 64 208 64
WIRE -560 80 -608 80
WIRE -448 80 -480 80
WIRE -48 112 -48 64
WIRE 336 144 336 64
WIRE -608 176 -608 160
WIRE -48 208 -48 192
WIRE 256 208 -48 208
WIRE -48 240 -48 208
WIRE 80 320 -48 320
WIRE 176 320 176 64
WIRE 176 320 144 320
WIRE 256 320 256 208
WIRE 336 320 336 224
WIRE 336 320 256 320
WIRE 336 368 336 320
FLAG 336 368 0
FLAG 128 112 Gate1
FLAG 208 64 Kathode
FLAG -448 -192 Gate1
FLAG -608 -96 Kathode
FLAG -448 80 Gate2
FLAG -608 176 Kathode
FLAG 144 368 Gate2
SYMBOL Misc\\SCR 64 80 R270
WINDOW 3 39 49 Left 2
SYMATTR Value EC103D2
SYMATTR InstName U1
SYMBOL Misc\\SCR 80 336 R270
WINDOW 3 -99 20 Left 2
SYMATTR Value EC103D1
SYMATTR InstName U2
SYMBOL voltage -48 96 R0
WINDOW 3 -173 106 Left 2
WINDOW 123 0 0 Left 2
WINDOW 39 0 0 Left 2
SYMATTR Value SINE(0 35 50)
SYMATTR InstName V1
SYMBOL res 320 128 R0
SYMATTR InstName R1
SYMATTR Value 100
SYMBOL voltage -608 -208 R0
WINDOW 0 -94 82 Left 2
WINDOW 123 0 0 Left 2
WINDOW 39 0 0 Left 2
SYMATTR InstName V2
SYMATTR Value PULSE(0 5 2m 0 0 100u 20m)
SYMBOL Misc\\EuropeanResistor -464 -208 R90
WINDOW 0 5 56 VBottom 2
WINDOW 3 27 56 VTop 2
SYMATTR InstName R2
SYMATTR Value 220
SYMBOL voltage -608 64 R0
WINDOW 0 -94 82 Left 2
WINDOW 123 0 0 Left 2
WINDOW 39 0 0 Left 2
SYMATTR InstName V3
SYMATTR Value PULSE(0 5 12m 0 0 100u 20m)
SYMBOL Misc\\EuropeanResistor -464 64 R90
WINDOW 0 5 56 VBottom 2
WINDOW 3 27 56 VTop 2
SYMATTR InstName R3
SYMATTR Value 220
SYMBOL voltage -48 224 R0
WINDOW 3 -188 52 Left 2
WINDOW 123 0 0 Left 2
WINDOW 39 0 0 Left 2
SYMATTR Value SINE(0 35 50)
SYMATTR InstName V4
TEXT -440 576 Left 2 !.tran 200m uic
TEXT -720 512 Left 2 !.lib Thyristor_SCR_EC103xx_SxSx_A_SPICE_Model_lib.lib
