Version 4
SHEET 1 880 680
WIRE 320 -96 96 -96
WIRE 96 -48 96 -96
WIRE 320 0 320 -96
WIRE 96 80 96 32
WIRE -96 160 -256 160
WIRE 48 160 -16 160
WIRE -256 192 -256 160
WIRE -256 288 -256 272
WIRE 96 288 96 176
WIRE 96 288 -256 288
WIRE 320 288 320 80
WIRE 320 288 96 288
WIRE 96 320 96 288
FLAG 96 320 0
SYMBOL nmos 48 80 R0
SYMATTR InstName M1
SYMATTR Value IRFZ44N
SYMBOL voltage 320 -16 R0
WINDOW 123 0 0 Left 0
WINDOW 39 0 0 Left 0
SYMATTR InstName V1
SYMATTR Value 24
SYMBOL Misc\\EuropeanResistor 80 -64 R0
SYMATTR InstName R1
SYMATTR Value 100
SYMBOL Misc\\EuropeanResistor -112 176 R270
WINDOW 0 27 56 VTop 2
WINDOW 3 5 56 VBottom 2
SYMATTR InstName R2
SYMATTR Value 47
SYMBOL voltage -256 176 R0
WINDOW 3 -74 136 Left 2
WINDOW 123 0 0 Left 0
WINDOW 39 0 0 Left 0
SYMATTR Value PULSE(0 5 0 0 0 5u 10u)
SYMATTR InstName V2
TEXT -336 336 Left 2 !.tran 1m
