Version 4
SHEET 1 880 680
WIRE 464 -96 240 -96
WIRE 240 -48 240 -96
WIRE -64 0 -432 0
WIRE 112 0 -64 0
WIRE 464 0 464 -96
WIRE 112 48 112 0
WIRE 240 80 240 32
WIRE -64 96 -64 80
WIRE 16 96 -64 96
WIRE -64 112 -64 96
WIRE -432 128 -432 0
WIRE -240 160 -256 160
WIRE -128 160 -160 160
WIRE 16 160 16 96
WIRE 48 160 48 96
WIRE 48 160 16 160
WIRE 112 160 112 144
WIRE 192 160 112 160
WIRE 112 176 112 160
WIRE -256 192 -256 160
WIRE 48 224 48 160
WIRE -432 288 -432 208
WIRE -256 288 -256 272
WIRE -256 288 -432 288
WIRE -64 288 -64 208
WIRE -64 288 -256 288
WIRE 112 288 112 272
WIRE 112 288 -64 288
WIRE 240 288 240 176
WIRE 240 288 112 288
WIRE 464 288 464 80
WIRE 464 288 240 288
WIRE 240 320 240 288
FLAG 240 320 0
SYMBOL nmos 192 80 R0
SYMATTR InstName M1
SYMATTR Value IRFZ44N
SYMBOL voltage 464 -16 R0
WINDOW 123 0 0 Left 0
WINDOW 39 0 0 Left 0
SYMATTR InstName V1
SYMATTR Value 24
SYMBOL Misc\\EuropeanResistor 224 -64 R0
SYMATTR InstName R1
SYMATTR Value 100
SYMBOL Misc\\EuropeanResistor -256 176 R270
WINDOW 0 27 56 VTop 2
WINDOW 3 5 56 VBottom 2
SYMATTR InstName R2
SYMATTR Value 1k
SYMBOL voltage -256 176 R0
WINDOW 3 -74 136 Left 2
WINDOW 123 0 0 Left 0
WINDOW 39 0 0 Left 0
WINDOW 0 -70 47 Left 2
SYMATTR Value PULSE(0 3.3 0 0 0 5u 10u)
SYMATTR InstName V2
SYMBOL pnp 48 272 M180
SYMATTR InstName Q1
SYMATTR Value 2N2907
SYMBOL npn 48 48 R0
SYMATTR InstName Q2
SYMATTR Value 2N2222
SYMBOL voltage -432 112 R0
WINDOW 123 0 0 Left 0
WINDOW 39 0 0 Left 0
SYMATTR InstName V3
SYMATTR Value 12
SYMBOL Misc\\EuropeanResistor -80 -16 R0
SYMATTR InstName R3
SYMATTR Value 1k
SYMBOL npn -128 112 R0
SYMATTR InstName Q3
SYMATTR Value 2N2222
TEXT -336 336 Left 2 !.tran 100u
