Version 4
SHEET 1 880 1392
WIRE -2688 448 -2912 448
WIRE -3568 576 -3648 576
WIRE -3200 576 -3568 576
WIRE -3024 576 -3200 576
WIRE -3024 624 -3024 576
WIRE -2688 624 -2688 448
WIRE -2912 656 -2912 448
WIRE -3200 672 -3200 656
WIRE -3120 672 -3200 672
WIRE -3200 688 -3200 672
WIRE -3568 720 -3568 576
WIRE -3376 736 -3392 736
WIRE -3264 736 -3296 736
WIRE -3120 736 -3120 672
WIRE -3088 736 -3088 672
WIRE -3088 736 -3120 736
WIRE -3024 736 -3024 720
WIRE -2960 736 -3024 736
WIRE -3024 752 -3024 736
WIRE -3392 768 -3392 736
WIRE -3088 800 -3088 736
WIRE -3568 864 -3568 784
WIRE -3392 864 -3392 848
WIRE -3392 864 -3568 864
WIRE -3200 864 -3200 784
WIRE -3200 864 -3392 864
WIRE -3024 864 -3024 848
WIRE -3024 864 -3200 864
WIRE -2912 864 -2912 752
WIRE -2912 864 -3024 864
WIRE -2912 912 -2912 864
WIRE -2768 912 -2912 912
WIRE -2688 912 -2688 704
WIRE -3648 976 -3648 576
WIRE -3584 976 -3648 976
WIRE -3216 1040 -3584 1040
WIRE -3040 1040 -3216 1040
WIRE -2688 1040 -2688 912
WIRE -3040 1088 -3040 1040
WIRE -2912 1120 -2912 912
WIRE -3216 1136 -3216 1120
WIRE -3136 1136 -3216 1136
WIRE -3216 1152 -3216 1136
WIRE -3584 1168 -3584 1040
WIRE -3392 1200 -3408 1200
WIRE -3280 1200 -3312 1200
WIRE -3136 1200 -3136 1136
WIRE -3104 1200 -3104 1136
WIRE -3104 1200 -3136 1200
WIRE -3040 1200 -3040 1184
WIRE -2960 1200 -3040 1200
WIRE -3040 1216 -3040 1200
WIRE -3408 1232 -3408 1200
WIRE -3104 1264 -3104 1200
WIRE -3584 1328 -3584 1248
WIRE -3408 1328 -3408 1312
WIRE -3408 1328 -3584 1328
WIRE -3216 1328 -3216 1248
WIRE -3216 1328 -3408 1328
WIRE -3040 1328 -3040 1312
WIRE -3040 1328 -3216 1328
WIRE -2912 1328 -2912 1216
WIRE -2912 1328 -3040 1328
WIRE -2688 1328 -2688 1120
WIRE -2688 1328 -2912 1328
WIRE -2912 1360 -2912 1328
FLAG -2912 1360 0
SYMBOL nmos -2960 1120 R0
SYMATTR InstName M1
SYMATTR Value IRFZ44N
SYMBOL voltage -2688 1024 R0
WINDOW 123 0 0 Left 0
WINDOW 39 0 0 Left 0
SYMATTR InstName V1
SYMATTR Value 12
SYMBOL Misc\\EuropeanResistor -2672 896 R90
WINDOW 0 5 56 VBottom 2
WINDOW 3 27 56 VTop 2
SYMATTR InstName R1
SYMATTR Value 100
SYMBOL Misc\\EuropeanResistor -3408 1216 R270
WINDOW 0 27 56 VTop 2
WINDOW 3 5 56 VBottom 2
SYMATTR InstName R2
SYMATTR Value 1k
SYMBOL voltage -3408 1216 R0
WINDOW 3 -74 136 Left 2
WINDOW 123 0 0 Left 0
WINDOW 39 0 0 Left 0
SYMATTR Value PULSE(0 5 0 0 0 5u 10u)
SYMATTR InstName V2
SYMBOL pnp -3104 1312 M180
SYMATTR InstName Q1
SYMATTR Value 2N2907
SYMBOL npn -3104 1088 R0
SYMATTR InstName Q2
SYMATTR Value 2N2222
SYMBOL voltage -3584 1152 R0
WINDOW 123 0 0 Left 0
WINDOW 39 0 0 Left 0
SYMATTR InstName V3
SYMATTR Value 12
SYMBOL Misc\\EuropeanResistor -3232 1024 R0
SYMATTR InstName R3
SYMATTR Value 1k
SYMBOL npn -3280 1152 R0
SYMATTR InstName Q3
SYMATTR Value 2N2222
SYMBOL nmos -2960 656 R0
SYMATTR InstName M2
SYMATTR Value IRFZ44N
SYMBOL Misc\\EuropeanResistor -3392 752 R270
WINDOW 0 27 56 VTop 2
WINDOW 3 5 56 VBottom 2
SYMATTR InstName R4
SYMATTR Value 1k
SYMBOL voltage -3392 752 R0
WINDOW 3 -74 136 Left 2
WINDOW 123 0 0 Left 0
WINDOW 39 0 0 Left 0
SYMATTR Value PULSE(5 0 0 0 0 5u 10u)
SYMATTR InstName V4
SYMBOL pnp -3088 848 M180
SYMATTR InstName Q4
SYMATTR Value 2N2907
SYMBOL npn -3088 624 R0
SYMATTR InstName Q5
SYMATTR Value 2N2222
SYMBOL Misc\\EuropeanResistor -3216 560 R0
SYMATTR InstName R5
SYMATTR Value 1k
SYMBOL npn -3264 688 R0
SYMATTR InstName Q6
SYMATTR Value 2N2222
SYMBOL voltage -2688 608 R0
WINDOW 123 0 0 Left 0
WINDOW 39 0 0 Left 0
SYMATTR InstName V6
SYMATTR Value 12
SYMBOL cap -3584 720 R0
SYMATTR InstName C1
SYMATTR Value 10µF
SYMBOL diode -3568 1040 R180
WINDOW 0 24 64 Left 2
WINDOW 3 24 0 Left 2
SYMATTR InstName D1
TEXT -3488 1376 Left 2 !.tran 100u uic
