Version 4
SHEET 1 920 680
WIRE 480 -272 128 -272
WIRE 848 -272 480 -272
WIRE 848 -144 848 -272
WIRE -32 -112 -912 -112
WIRE 32 -112 -32 -112
WIRE 256 -112 96 -112
WIRE 256 -80 256 -112
WIRE 336 -80 256 -80
WIRE 336 -64 336 -80
WIRE -32 -48 -32 -112
WIRE 128 -48 128 -272
WIRE 480 0 480 -272
WIRE 256 16 256 -80
WIRE 256 16 224 16
WIRE -128 80 -736 80
WIRE 288 80 224 80
WIRE 432 80 288 80
WIRE 288 144 288 80
WIRE 288 144 224 144
WIRE 336 144 336 0
WIRE 368 144 336 144
WIRE 480 144 480 96
WIRE 480 144 368 144
WIRE 608 144 480 144
WIRE 848 144 848 -64
WIRE 848 144 688 144
WIRE 480 192 480 144
WIRE 368 208 368 144
WIRE 368 208 224 208
WIRE -128 272 -576 272
WIRE 288 272 224 272
WIRE 432 272 288 272
WIRE 848 288 848 144
WIRE 288 336 288 272
WIRE 288 336 224 336
WIRE -736 384 -736 80
WIRE -576 384 -576 272
WIRE -912 448 -912 -112
WIRE -736 528 -736 464
WIRE -736 528 -912 528
WIRE -576 528 -576 464
WIRE -576 528 -736 528
WIRE -32 528 -32 400
WIRE -32 528 -576 528
WIRE 128 528 128 400
WIRE 128 528 -32 528
WIRE 480 528 480 288
WIRE 480 528 128 528
WIRE 848 528 848 368
WIRE 848 528 480 528
WIRE -32 560 -32 528
FLAG -32 560 0
SYMBOL PowerProducts\\LT1160 48 160 R0
SYMATTR InstName U1
SYMBOL nmos 432 0 R0
SYMATTR InstName M1
SYMATTR Value IRFZ44N
SYMBOL nmos 432 192 R0
SYMATTR InstName M2
SYMATTR Value IRFZ44N
SYMBOL voltage 848 -160 R0
WINDOW 123 0 0 Left 0
WINDOW 39 0 0 Left 0
SYMATTR InstName V1
SYMATTR Value 12
SYMBOL voltage 848 272 R0
WINDOW 123 0 0 Left 0
WINDOW 39 0 0 Left 0
SYMATTR InstName V2
SYMATTR Value 12
SYMBOL Misc\\EuropeanResistor 704 128 R90
WINDOW 0 5 56 VBottom 2
WINDOW 3 27 56 VTop 2
SYMATTR InstName R1
SYMATTR Value 100
SYMBOL voltage -736 368 R0
WINDOW 3 -135 187 Left 2
WINDOW 123 0 0 Left 0
WINDOW 39 0 0 Left 0
SYMATTR InstName V3
SYMATTR Value PULSE(0 3.3 0.5u 0 0 4.5u 10u)
SYMBOL voltage -576 368 R0
WINDOW 3 24 87 Left 2
WINDOW 123 0 0 Left 0
WINDOW 39 0 0 Left 0
SYMATTR InstName V4
SYMATTR Value PULSE(0 3.3 5.5u 0 0 4.5u 10u)
SYMBOL voltage -912 432 R0
WINDOW 123 0 0 Left 0
WINDOW 39 0 0 Left 0
SYMATTR InstName V5
SYMATTR Value 12
SYMBOL cap 320 -64 R0
SYMATTR InstName C1
SYMATTR Value 1µF
SYMBOL diode 32 -96 R270
WINDOW 0 32 32 VTop 2
WINDOW 3 0 32 VBottom 2
SYMATTR InstName D1
SYMATTR Value 1N4148
TEXT -946 584 Left 2 !.tran 100u
