Version 4
SHEET 1 880 680
WIRE -560 -192 -608 -192
WIRE -448 -192 -480 -192
WIRE -608 -96 -608 -112
WIRE 176 -96 112 -96
WIRE 224 -96 176 -96
WIRE 432 -96 224 -96
WIRE 112 -32 112 -96
WIRE 224 -32 224 -96
WIRE 432 0 432 -96
WIRE 112 64 112 32
WIRE 112 64 -48 64
WIRE 224 64 224 32
WIRE 224 64 160 64
WIRE -560 80 -608 80
WIRE -448 80 -480 80
WIRE 112 96 112 64
WIRE 224 96 224 64
WIRE -48 112 -48 64
WIRE -608 176 -608 160
WIRE 112 208 112 160
WIRE 224 208 224 160
WIRE 224 208 112 208
WIRE 432 208 432 80
WIRE 432 208 224 208
WIRE 432 224 432 208
WIRE -48 256 -48 192
WIRE 160 256 160 64
WIRE 160 256 -48 256
FLAG 432 224 0
FLAG 160 -32 Gate1
FLAG 272 -32 Gate2
FLAG 176 -96 Kathode
FLAG -448 -192 Gate1
FLAG -608 -96 Kathode
FLAG -448 80 Gate2
FLAG -608 176 Kathode
SYMBOL diode 128 160 R180
WINDOW 0 24 64 Left 2
WINDOW 3 24 0 Left 2
SYMATTR InstName D1
SYMBOL diode 240 160 R180
WINDOW 0 24 64 Left 2
WINDOW 3 24 0 Left 2
SYMATTR InstName D2
SYMBOL Misc\\SCR 128 32 R180
WINDOW 3 41 19 Left 2
SYMATTR Value EC103D2
SYMATTR InstName U1
SYMBOL Misc\\SCR 240 32 R180
WINDOW 3 -99 20 Left 2
SYMATTR Value EC103D1
SYMATTR InstName U2
SYMBOL voltage -48 96 R0
WINDOW 3 -173 106 Left 2
WINDOW 123 0 0 Left 2
WINDOW 39 0 0 Left 2
SYMATTR Value SINE(0 330 50)
SYMATTR InstName V1
SYMBOL res 416 -16 R0
SYMATTR InstName R1
SYMATTR Value 100
SYMBOL voltage -608 -208 R0
WINDOW 0 -94 82 Left 2
WINDOW 123 0 0 Left 2
WINDOW 39 0 0 Left 2
SYMATTR InstName V2
SYMATTR Value PULSE(0 5 5.56m 0 0 100u 20m)
SYMBOL Misc\\EuropeanResistor -464 -208 R90
WINDOW 0 5 56 VBottom 2
WINDOW 3 27 56 VTop 2
SYMATTR InstName R2
SYMATTR Value 220
SYMBOL voltage -608 64 R0
WINDOW 0 -94 82 Left 2
WINDOW 123 0 0 Left 2
WINDOW 39 0 0 Left 2
SYMATTR InstName V3
SYMATTR Value PULSE(0 5 15.56m 0 0 100u 20m)
SYMBOL Misc\\EuropeanResistor -464 64 R90
WINDOW 0 5 56 VBottom 2
WINDOW 3 27 56 VTop 2
SYMATTR InstName R3
SYMATTR Value 220
TEXT -224 264 Left 2 !.tran 100m
TEXT -64 448 Left 2 !.lib Thyristor_SCR_EC103xx_SxSx_A_SPICE_Model_lib.lib
