Version 4
SHEET 1 880 680
WIRE -320 -112 -400 -112
WIRE -144 -112 -240 -112
WIRE -48 -112 -144 -112
WIRE 176 -112 -48 -112
WIRE -144 -80 -144 -112
WIRE -400 -64 -400 -112
WIRE -48 -48 -48 -112
WIRE 176 -48 176 -112
WIRE -144 16 -144 -16
WIRE -96 16 -144 16
WIRE -400 48 -400 16
WIRE -144 64 -144 16
WIRE -400 160 -400 128
WIRE -144 160 -144 144
WIRE -144 160 -400 160
WIRE -48 160 -48 16
WIRE -48 160 -144 160
WIRE 176 160 176 32
WIRE 176 160 -48 160
WIRE 176 176 176 160
FLAG 176 176 0
SYMBOL Misc\\SCR -64 -48 R0
WINDOW 3 48 72 Left 2
SYMATTR Value EC103D2
SYMATTR InstName U1
SYMBOL res 160 -64 R0
SYMATTR InstName Rload
SYMATTR Value 100
SYMBOL zener -128 -16 R180
WINDOW 0 24 64 Left 2
WINDOW 3 24 0 Left 2
SYMATTR InstName D1
SYMATTR Value BZX84C24VL
SYMBOL res -160 48 R0
SYMATTR InstName R2
SYMATTR Value 470
SYMBOL voltage -400 -80 R0
WINDOW 123 0 0 Left 0
WINDOW 39 0 0 Left 0
SYMATTR InstName V1
SYMATTR Value 20
SYMBOL voltage -400 32 R0
WINDOW 3 -177 166 Left 2
WINDOW 123 0 0 Left 0
WINDOW 39 0 0 Left 0
SYMATTR InstName V2
SYMATTR Value PULSE(0 30 10m 100n 100n 40m 100m)
SYMBOL Misc\\EuropeanResistor -224 -128 R90
WINDOW 0 5 56 VBottom 2
WINDOW 3 27 56 VTop 2
SYMATTR InstName R1
SYMATTR Value 10
TEXT -64 448 Left 2 !.lib Thyristor_SCR_EC103xx_SxSx_A_SPICE_Model_lib.lib
TEXT -578 468 Left 2 !.tran 50m
