Version 4
SHEET 1 880 680
WIRE -32 80 -128 80
WIRE 64 80 -32 80
WIRE 80 80 64 80
WIRE 288 80 176 80
WIRE -128 96 -128 80
WIRE -32 96 -32 80
WIRE 288 112 288 80
WIRE 288 112 192 112
WIRE 64 176 64 80
WIRE 32 192 16 192
WIRE -128 208 -128 176
WIRE 128 208 128 144
WIRE 128 208 96 208
WIRE -32 224 -32 176
WIRE 32 224 -32 224
WIRE 288 224 288 112
WIRE -32 256 -32 224
WIRE 16 320 16 192
WIRE 192 320 192 112
WIRE 192 320 16 320
WIRE -128 352 -128 288
WIRE -64 352 -128 352
WIRE -32 352 -32 320
WIRE -32 352 -64 352
WIRE 64 352 64 240
WIRE 64 352 -32 352
WIRE 288 352 288 304
WIRE 288 352 64 352
WIRE -64 368 -64 352
FLAG -64 368 0
FLAG 288 80 Vout
FLAG -128 80 Vin
SYMBOL npn 80 144 R270
WINDOW 0 103 25 VRight 2
WINDOW 3 69 9 VRight 2
SYMATTR InstName Q1
SYMATTR Value 2N2222
SYMBOL res 272 208 R0
WINDOW 3 36 68 Left 2
SYMATTR InstName Rload
SYMATTR Value 100
SYMBOL Misc\\battery -128 192 R0
WINDOW 0 -58 12 Left 2
WINDOW 3 -56 96 Left 2
WINDOW 123 0 0 Left 2
WINDOW 39 0 0 Left 2
SYMATTR InstName V1
SYMATTR Value 10V
SYMBOL res -48 80 R0
WINDOW 3 24 84 Left 2
SYMATTR InstName R1
SYMATTR Value 1k
SYMBOL Opamps\\UniversalOpamp2 64 208 R0
WINDOW 0 -34 -48 Left 2
SYMATTR InstName U1
SYMBOL Misc\\signal -128 80 R0
WINDOW 0 -179 -10 Left 2
WINDOW 3 -178 19 Left 2
WINDOW 123 0 0 Left 2
WINDOW 39 0 0 Left 2
SYMATTR InstName V2
SYMATTR Value SINE(0 0.5 50)
SYMBOL References\\LT1634-5 -32 288 R0
WINDOW 3 -41 33 VLeft 2
WINDOW 0 4 -37 Left 2
SYMATTR InstName U2
TEXT -616 24 Left 2 ;Simple Linear Regulator.
TEXT -612 346 Left 2 !.tran 0 100ms 0
TEXT -616 128 Left 2 ;Notes:\nU1 is a generic Op Amp\nU2 is a precision 5V reference\nV2 represents 1V peak to peak \nripple on the 10V supply\nNote how the ripple does not appear\non the regulated output.
